Global frequency set at 1000000000000 ticks per second
src/mem/dram_interface.cc:690: warn: DRAM device capacity (16384 Mbytes) does not match the address range assigned (1024 Mbytes)
src/mem/dram_interface.cc:690: warn: DRAM device capacity (16384 Mbytes) does not match the address range assigned (1024 Mbytes)
src/sim/kernel_workload.cc:46: info: kernel located at: /home/mcallisl/.cache/gem5/arm64-linux-kernel-6.8.12
src/base/loader/symtab.cc:95: warn: Cannot insert a new symbol table due to name collisions. Adding prefix to each symbol's name can resolve this issue.
src/base/statistics.hh:279: warn: One of the stats is a legacy stat. Legacy stat is a stat that does not belong to any statistics::Group. Legacy stat is deprecated.
src/base/statistics.hh:279: warn: One of the stats is a legacy stat. Legacy stat is a stat that does not belong to any statistics::Group. Legacy stat is deprecated.
src/base/vnc/vncserver.cc:163: warn: Sockets disabled, not accepting vnc client connections
src/dev/serial/terminal.cc:174: warn: Sockets disabled, not accepting terminal connections
src/base/remote_gdb.cc:418: warn: Sockets disabled, not accepting gdb connections
src/arch/arm/fs_workload.cc:121: info: Using bootloader at address 0x10
src/arch/arm/fs_workload.cc:139: info: Using kernel entry physical address at 0x80000000
src/arch/arm/linux/fs_workload.cc:111: info: Loading DTB file: m5out/device.dtb at address 0x88000000
src/dev/arm/energy_ctrl.cc:252: warn: Existing EnergyCtrl, but no enabled DVFSHandler found.
gem5 Simulator System.  https://www.gem5.org
gem5 is copyrighted software; use the --copyright option for details.

gem5 version 25.0.0.0
gem5 compiled Jul  9 2025 13:14:56
gem5 started Jul 15 2025 16:30:38
gem5 executing on turing302, pid 160199
command line: /home/mcallisl/gem5/build/ALL/gem5.opt /home/mcallisl/perf_automation/gem5_config.py --isa ARM --cpu O3 --mem 2GiB --cache 128KiB:1024KiB --cores 4 --workload boot-exit

info: Standard input is not a terminal, disabling listeners.
info: Using default config
test3
src/mem/ruby/system/Sequencer.cc:704: warn: Replacement policy updates recently became the responsibility of SLICC state machines. Make sure to setMRU() near callbacks in .sm files!
src/dev/arm/gic_v3_distributor.cc:884: warn: Gicv3Distributor::write(): setting ARE_NS to 0 is not supported!
src/dev/arm/gic_v3_distributor.cc:889: warn: Gicv3Distributor::write(): setting ARE_S to 0 is not supported!
src/dev/arm/rv_ctrl.cc:176: warn: SCReg: Access to unknown device dcc0:site0:pos0:fn7:dev0
src/arch/arm/insts/pseudo.cc:174: warn: 	instruction 'bti' unimplemented
src/mem/ruby/system/RubyPort.cc:264: warn: Cache maintenance operations are not supported in Ruby.
/home/mcallisl/gem5/build/ALL/gem5.opt: Terminated

 Performance counter stats for '/home/mcallisl/gem5/build/ALL/gem5.opt /home/mcallisl/perf_automation/gem5_config.py --isa ARM --cpu O3 --mem 2GiB --cache 128KiB:1024KiB --cores 4 --workload boot-exit':

     5,173,934,410      CPU_CLK_UNHALTED.REF_XCLK        #     29.6 %  tma_frontend_bound     
                                                  #      5.1 %  tma_bad_speculation    
                                                  #     38.2 %  tma_retiring           
                                                  #     27.1 %  tma_backend_bound        (50.04%)
    13,661,715,626      IDQ.MS_UOPS                                                             (50.05%)
   192,947,234,240      IDQ_UOPS_NOT_DELIVERED.CORE                                             (49.98%)
     3,035,512,798      INT_MISC.RECOVERY_CYCLES_ANY                                            (49.99%)
     5,171,529,632      CPU_CLK_UNHALTED.ONE_THREAD_ACTIVE                                        (49.98%)
   162,945,925,734      CPU_CLK_UNHALTED.THREAD                                                 (49.96%)
   248,863,381,450      UOPS_RETIRED.RETIRE_SLOTS                                               (50.03%)
   275,703,447,020      UOPS_ISSUED.ANY                                                         (50.03%)

      81.386686290 seconds time elapsed

      49.853710000 seconds user
       2.640911000 seconds sys


