warn: Resource riscv-bootloader-opensbi-1.3.1 is not compatible with gem5 version 25.0.0.0.
warn: Resource riscv-bootloader-opensbi-1.3.1 is not compatible with gem5 version 25.0.0.0.
Global frequency set at 1000000000000 ticks per second
src/mem/dram_interface.cc:690: warn: DRAM device capacity (16384 Mbytes) does not match the address range assigned (1024 Mbytes)
src/mem/dram_interface.cc:690: warn: DRAM device capacity (16384 Mbytes) does not match the address range assigned (1024 Mbytes)
src/base/statistics.hh:279: warn: One of the stats is a legacy stat. Legacy stat is a stat that does not belong to any statistics::Group. Legacy stat is deprecated.
      0: board.platform.rtc: Real-time clock set to Sun Jan  1 00:00:00 2012
src/dev/serial/terminal.cc:174: warn: Sockets disabled, not accepting terminal connections
src/arch/riscv/isa.cc:319: info: RVV enabled, VLEN = 256 bits, ELEN = 64 bits
src/base/statistics.hh:279: warn: One of the stats is a legacy stat. Legacy stat is a stat that does not belong to any statistics::Group. Legacy stat is deprecated.
src/arch/riscv/isa.cc:319: info: RVV enabled, VLEN = 256 bits, ELEN = 64 bits
src/arch/riscv/isa.cc:319: info: RVV enabled, VLEN = 256 bits, ELEN = 64 bits
src/arch/riscv/isa.cc:319: info: RVV enabled, VLEN = 256 bits, ELEN = 64 bits
src/base/remote_gdb.cc:418: warn: Sockets disabled, not accepting gdb connections
src/arch/riscv/linux/fs_workload.cc:162: info: Loaded bootloader '/home/mcallisl/.cache/gem5/riscv-bootloader-opensbi-1.3.1' at 0x0
src/arch/riscv/linux/fs_workload.cc:180: info: Loaded kernel '/home/mcallisl/.cache/gem5/riscv-linux-6.8.12-kernel' at 0x80200000
src/arch/riscv/linux/fs_workload.cc:199: info: Loaded DTB 'm5out/device.dtb' at 0x87e00000
gem5 Simulator System.  https://www.gem5.org
gem5 is copyrighted software; use the --copyright option for details.

gem5 version 25.0.0.0
gem5 compiled Jul  9 2025 13:14:56
gem5 started Jul 10 2025 21:23:10
gem5 executing on turing302, pid 155650
command line: /home/mcallisl/gem5/build/ALL/gem5.opt /home/mcallisl/perf_automation/gem5_config.py --isa RISCV --cpu O3 --mem 2GiB --cache 32KiB:256KiB --cores 4 --workload boot-exit

info: Standard input is not a terminal, disabling listeners.
info: Using default config
test3
src/mem/ruby/system/Sequencer.cc:704: warn: Replacement policy updates recently became the responsibility of SLICC state machines. Make sure to setMRU() near callbacks in .sm files!
src/arch/riscv/isa.cc:691: warn: Ignoring write to miscreg HPMCOUNTER03.
src/arch/riscv/isa.cc:691: warn: Ignoring write to miscreg HPMCOUNTER03.
src/arch/riscv/pmp.cc:138: warn: pmp access fault.
src/arch/riscv/pmp.cc:138: warn: pmp access fault.
src/arch/riscv/pmp.cc:138: warn: pmp access fault.
src/arch/riscv/pmp.cc:138: warn: pmp access fault.
src/arch/riscv/pmp.cc:138: warn: pmp access fault.
src/arch/riscv/pmp.cc:138: warn: pmp access fault.
src/arch/riscv/pmp.cc:138: warn: pmp access fault.
src/arch/riscv/pmp.cc:138: warn: pmp access fault.
src/arch/riscv/pmp.cc:138: warn: pmp access fault.
src/arch/riscv/isa.cc:691: warn: Ignoring write to miscreg HPMCOUNTER03.
src/arch/riscv/isa.cc:691: warn: Ignoring write to miscreg HPMCOUNTER03.
src/arch/riscv/isa.cc:691: warn: Ignoring write to miscreg HPMCOUNTER03.
src/arch/riscv/isa.cc:691: warn: Ignoring write to miscreg HPMCOUNTER03.
src/arch/riscv/isa.cc:691: warn: Ignoring write to miscreg HPMCOUNTER03.
src/arch/riscv/isa.cc:691: warn: Ignoring write to miscreg HPMCOUNTER03.
src/mem/ruby/system/RubyPort.cc:264: warn: Cache maintenance operations are not supported in Ruby.
src/dev/riscv/vio_mmio.cc:216: warn: Ignoring queue resize hint. Requested size: 16
src/cpu/o3/fetch.cc:610: warn: Address 0x3f903bbac0 is outside of physical memory, stopping fetch
src/cpu/o3/fetch.cc:610: warn: Address 0x3f903beb00 is outside of physical memory, stopping fetch
src/cpu/o3/fetch.cc:610: warn: Address 0x3f903beb00 is outside of physical memory, stopping fetch
src/cpu/o3/fetch.cc:610: warn: Address 0x3f8f78e6c0 is outside of physical memory, stopping fetch
src/cpu/o3/fetch.cc:610: warn: Address 0x3f8f77f000 is outside of physical memory, stopping fetch
src/cpu/o3/fetch.cc:610: warn: Address 0x3f8f6e0600 is outside of physical memory, stopping fetch
src/cpu/o3/fetch.cc:610: warn: Address 0x3f8f6e0600 is outside of physical memory, stopping fetch
src/arch/riscv/isa.cc:1043: warn: 244689224841: context 1: 10000 consecutive SC failures.
src/cpu/o3/fetch.cc:610: warn: Address 0x2ad078edc0 is outside of physical memory, stopping fetch
src/cpu/o3/fetch.cc:610: warn: Address 0x2ad078fe00 is outside of physical memory, stopping fetch
src/cpu/o3/fetch.cc:610: warn: Address 0x2ad07c2000 is outside of physical memory, stopping fetch
src/cpu/o3/fetch.cc:610: warn: Address 0x2ad07c2c80 is outside of physical memory, stopping fetch
src/cpu/o3/fetch.cc:610: warn: Address 0x2ad07c2c80 is outside of physical memory, stopping fetch
src/cpu/o3/fetch.cc:610: warn: Address 0x2ad07c2c80 is outside of physical memory, stopping fetch
src/cpu/o3/fetch.cc:610: warn: Address 0x2ad07c18c0 is outside of physical memory, stopping fetch
src/cpu/o3/fetch.cc:610: warn: Address 0x2ad07c2c80 is outside of physical memory, stopping fetch
src/cpu/o3/fetch.cc:610: warn: Address 0x3f903beb00 is outside of physical memory, stopping fetch
src/cpu/o3/fetch.cc:610: warn: Address 0x2ad07e1340 is outside of physical memory, stopping fetch
src/cpu/o3/fetch.cc:610: warn: Address 0x3f903bf040 is outside of physical memory, stopping fetch
src/cpu/o3/fetch.cc:610: warn: Address 0x3f903bf040 is outside of physical memory, stopping fetch
src/cpu/o3/fetch.cc:610: warn: Address 0x3f903bf040 is outside of physical memory, stopping fetch
src/cpu/o3/fetch.cc:610: warn: Address 0x3f903c4640 is outside of physical memory, stopping fetch
src/cpu/o3/fetch.cc:610: warn: Address 0x3f903c4640 is outside of physical memory, stopping fetch
src/cpu/o3/fetch.cc:610: warn: Address 0x3f903c4640 is outside of physical memory, stopping fetch
src/cpu/o3/fetch.cc:610: warn: Address 0x3f903c36c0 is outside of physical memory, stopping fetch
src/cpu/o3/fetch.cc:610: warn: Address 0x3f903c3640 is outside of physical memory, stopping fetch
src/cpu/o3/fetch.cc:610: warn: Address 0x3f903c3640 is outside of physical memory, stopping fetch
src/cpu/o3/fetch.cc:610: warn: Address 0x2ad07cacc0 is outside of physical memory, stopping fetch
src/cpu/o3/fetch.cc:610: warn: Address 0x2ad07cacc0 is outside of physical memory, stopping fetch
src/cpu/o3/fetch.cc:610: warn: Address 0x2ad07cacc0 is outside of physical memory, stopping fetch
src/cpu/o3/fetch.cc:610: warn: Address 0x2ad079a1c0 is outside of physical memory, stopping fetch
src/cpu/o3/fetch.cc:610: warn: Address 0x2ad079ea40 is outside of physical memory, stopping fetch
/home/mcallisl/gem5/build/ALL/gem5.opt: Terminated

 Performance counter stats for '/home/mcallisl/gem5/build/ALL/gem5.opt /home/mcallisl/perf_automation/gem5_config.py --isa RISCV --cpu O3 --mem 2GiB --cache 32KiB:256KiB --cores 4 --workload boot-exit':

 7,006,486,937,327      CPU_CLK_UNHALTED.REF_XCLK        #     36.0 %  tma_frontend_bound     
                                                  #      1.2 %  tma_bad_speculation    
                                                  #     54.6 %  tma_retiring           
                                                  #      8.3 %  tma_backend_bound        (50.00%)
55,116,082,546,295      IDQ.MS_UOPS                                                             (50.00%)
299,964,351,513,667      IDQ_UOPS_NOT_DELIVERED.CORE                                             (50.00%)
   874,527,222,434      INT_MISC.RECOVERY_CYCLES_ANY                                            (50.00%)
 6,996,425,809,996      CPU_CLK_UNHALTED.ONE_THREAD_ACTIVE                                        (50.00%)
208,707,349,859,470      CPU_CLK_UNHALTED.THREAD                                                 (50.00%)
455,486,789,021,471      UOPS_RETIRED.RETIRE_SLOTS                                               (50.00%)
463,390,559,864,629      UOPS_ISSUED.ANY                                                         (50.00%)

   72529.766683924 seconds time elapsed

   71562.623901000 seconds user
       2.477236000 seconds sys


