Global frequency set at 1000000000000 ticks per second
warn: board.workload.acpi_description_table_pointer.rsdt adopting orphan SimObject param 'entries'
src/mem/dram_interface.cc:690: warn: DRAM device capacity (16384 Mbytes) does not match the address range assigned (1024 Mbytes)
src/mem/dram_interface.cc:690: warn: DRAM device capacity (16384 Mbytes) does not match the address range assigned (1024 Mbytes)
src/sim/kernel_workload.cc:46: info: kernel located at: /home/mcallisl/.cache/gem5/x86-linux-kernel-6.8.0-52-generic
src/base/statistics.hh:279: warn: One of the stats is a legacy stat. Legacy stat is a stat that does not belong to any statistics::Group. Legacy stat is deprecated.
      0: board.pc.south_bridge.cmos.rtc: Real-time clock set to Sun Jan  1 00:00:00 2012
src/dev/serial/terminal.cc:174: warn: Sockets disabled, not accepting terminal connections
src/base/statistics.hh:279: warn: One of the stats is a legacy stat. Legacy stat is a stat that does not belong to any statistics::Group. Legacy stat is deprecated.
src/dev/intel_8254_timer.cc:128: warn: Reading current count from inactive timer.
src/base/remote_gdb.cc:418: warn: Sockets disabled, not accepting gdb connections
gem5 Simulator System.  https://www.gem5.org
gem5 is copyrighted software; use the --copyright option for details.

gem5 version 25.0.0.0
gem5 compiled Jul  9 2025 13:14:56
gem5 started Jul 21 2025 17:16:08
gem5 executing on turing302, pid 166010
command line: /home/mcallisl/gem5/build/ALL/gem5.opt /home/mcallisl/perf_automation/gem5_config.py --isa X86 --cpu O3 --mem 2GiB --cache 32KiB:256KiB --cores 4 --workload boot_exit

info: Standard input is not a terminal, disabling listeners.
info: Using default config
test3
src/mem/ruby/system/Sequencer.cc:704: warn: Replacement policy updates recently became the responsibility of SLICC state machines. Make sure to setMRU() near callbacks in .sm files!
build/ALL/arch/x86/generated/exec-ns.cc.inc:27: warn: instruction 'sgdt_Ms' unimplemented
