Global frequency set at 1000000000000 ticks per second
warn: board.workload.acpi_description_table_pointer.rsdt adopting orphan SimObject param 'entries'
src/mem/dram_interface.cc:690: warn: DRAM device capacity (16384 Mbytes) does not match the address range assigned (1024 Mbytes)
src/mem/dram_interface.cc:690: warn: DRAM device capacity (16384 Mbytes) does not match the address range assigned (1024 Mbytes)
src/sim/kernel_workload.cc:46: info: kernel located at: /home/mcallisl/.cache/gem5/x86-linux-kernel-6.8.0-52-generic
src/base/statistics.hh:279: warn: One of the stats is a legacy stat. Legacy stat is a stat that does not belong to any statistics::Group. Legacy stat is deprecated.
      0: board.pc.south_bridge.cmos.rtc: Real-time clock set to Sun Jan  1 00:00:00 2012
src/dev/serial/terminal.cc:174: warn: Sockets disabled, not accepting terminal connections
src/base/statistics.hh:279: warn: One of the stats is a legacy stat. Legacy stat is a stat that does not belong to any statistics::Group. Legacy stat is deprecated.
src/dev/intel_8254_timer.cc:128: warn: Reading current count from inactive timer.
src/base/remote_gdb.cc:418: warn: Sockets disabled, not accepting gdb connections
gem5 Simulator System.  https://www.gem5.org
gem5 is copyrighted software; use the --copyright option for details.

gem5 version 25.0.0.0
gem5 compiled Jul  8 2025 20:16:02
gem5 started Jul  9 2025 14:21:47
gem5 executing on turing301, pid 179819
command line: /home/mcallisl/gem5/build/ALL/gem5.opt /home/mcallisl/perf_automation/gem5_config.py --isa X86 --cpu O3 --mem 2GiB --cache 128KiB:1024KiB --cores 4 --workload boot-exit

info: Standard input is not a terminal, disabling listeners.
info: Using default config
test3
src/mem/ruby/system/Sequencer.cc:704: warn: Replacement policy updates recently became the responsibility of SLICC state machines. Make sure to setMRU() near callbacks in .sm files!
build/ALL/arch/x86/generated/exec-ns.cc.inc:27: warn: instruction 'sgdt_Ms' unimplemented
build/ALL/arch/x86/generated/exec-ns.cc.inc:27: warn: instruction 'fninit' unimplemented
src/cpu/o3/fetch.cc:610: warn: Address 0xffffffc0 is outside of physical memory, stopping fetch
src/cpu/o3/fetch.cc:610: warn: Address 0xffffffc0 is outside of physical memory, stopping fetch
build/ALL/arch/x86/generated/exec-ns.cc.inc:27: warn: instruction 'wbinvd' unimplemented
build/ALL/arch/x86/generated/exec-ns.cc.inc:27: warn: instruction 'sgdt_Ms' unimplemented
src/cpu/o3/fetch.cc:610: warn: Address 0xffffffc0 is outside of physical memory, stopping fetch
src/cpu/o3/fetch.cc:610: warn: Address 0xffffffc0 is outside of physical memory, stopping fetch
build/ALL/arch/x86/generated/exec-ns.cc.inc:27: warn: instruction 'wbinvd' unimplemented
build/ALL/arch/x86/generated/exec-ns.cc.inc:27: warn: instruction 'sgdt_Ms' unimplemented
src/cpu/o3/fetch.cc:610: warn: Address 0xffffffc0 is outside of physical memory, stopping fetch
src/cpu/o3/fetch.cc:610: warn: Address 0xffffffc0 is outside of physical memory, stopping fetch
build/ALL/arch/x86/generated/exec-ns.cc.inc:27: warn: instruction 'wbinvd' unimplemented
build/ALL/arch/x86/generated/exec-ns.cc.inc:27: warn: instruction 'sgdt_Ms' unimplemented
build/ALL/arch/x86/generated/exec-ns.cc.inc:27: warn: instruction 'fninit' unimplemented
build/ALL/arch/x86/generated/exec-ns.cc.inc:27: warn: instruction 'fninit' unimplemented
build/ALL/arch/x86/generated/exec-ns.cc.inc:27: warn: instruction 'fninit' unimplemented
src/arch/x86/interrupts.cc:530: hack: Assuming logical destinations are 1 << id.
src/dev/pci/host.cc:171: warn: 00:1f.1: Write to config space on non-existent PCI device
src/dev/pci/host.cc:171: warn: 00:1f.1: Write to config space on non-existent PCI device
build/ALL/arch/x86/generated/exec-ns.cc.inc:27: warn: instruction 'fwait' unimplemented
src/dev/x86/pc.cc:117: warn: Don't know what interrupt to clear for console.
build/ALL/arch/x86/generated/exec-ns.cc.inc:27: warn: instruction 'fwait' unimplemented
build/ALL/arch/x86/generated/exec-ns.cc.inc:27: warn: instruction 'fwait' unimplemented
build/ALL/arch/x86/generated/exec-ns.cc.inc:27: warn: instruction 'fwait' unimplemented

 Performance counter stats for '/home/mcallisl/gem5/build/ALL/gem5.opt /home/mcallisl/perf_automation/gem5_config.py --isa X86 --cpu O3 --mem 2GiB --cache 128KiB:1024KiB --cores 4 --workload boot-exit':

 2,822,958,607,235      CPU_CLK_UNHALTED.REF_XCLK        #     44.5 %  tma_frontend_bound     
                                                  #      4.6 %  tma_bad_speculation    
                                                  #     30.8 %  tma_retiring           
                                                  #     20.1 %  tma_backend_bound        (50.00%)
 5,891,205,112,552      IDQ.MS_UOPS                                                             (50.00%)
150,718,224,660,902      IDQ_UOPS_NOT_DELIVERED.CORE                                             (50.00%)
 1,343,348,272,074      INT_MISC.RECOVERY_CYCLES_ANY                                            (50.00%)
 2,822,102,056,756      CPU_CLK_UNHALTED.ONE_THREAD_ACTIVE                                        (50.00%)
84,712,155,623,641      CPU_CLK_UNHALTED.THREAD                                                 (50.00%)
104,408,613,789,525      UOPS_RETIRED.RETIRE_SLOTS                                               (50.00%)
117,243,876,773,808      UOPS_ISSUED.ANY                                                         (50.00%)

   28418.956016819 seconds time elapsed

   28131.988570000 seconds user
       3.400282000 seconds sys


