Global frequency set at 1000000000000 ticks per second
warn: board.workload.acpi_description_table_pointer.rsdt adopting orphan SimObject param 'entries'
src/mem/dram_interface.cc:690: warn: DRAM device capacity (16384 Mbytes) does not match the address range assigned (1024 Mbytes)
src/mem/dram_interface.cc:690: warn: DRAM device capacity (16384 Mbytes) does not match the address range assigned (1024 Mbytes)
src/sim/kernel_workload.cc:46: info: kernel located at: /home/mcallisl/.cache/gem5/x86-linux-kernel-5.4.0-105-generic
src/base/statistics.hh:279: warn: One of the stats is a legacy stat. Legacy stat is a stat that does not belong to any statistics::Group. Legacy stat is deprecated.
      0: board.pc.south_bridge.cmos.rtc: Real-time clock set to Sun Jan  1 00:00:00 2012
src/dev/serial/terminal.cc:174: warn: Sockets disabled, not accepting terminal connections
src/base/statistics.hh:279: warn: One of the stats is a legacy stat. Legacy stat is a stat that does not belong to any statistics::Group. Legacy stat is deprecated.
src/dev/intel_8254_timer.cc:128: warn: Reading current count from inactive timer.
src/base/remote_gdb.cc:418: warn: Sockets disabled, not accepting gdb connections
gem5 Simulator System.  https://www.gem5.org
gem5 is copyrighted software; use the --copyright option for details.

gem5 version 24.1.0.3
gem5 compiled Jul 21 2025 18:19:43
gem5 started Jul 22 2025 02:30:26
gem5 executing on turing302, pid 178965
command line: /home/mcallisl/gem5/build/ALL/gem5.opt /home/mcallisl/perf_automation/gem5_config.py --isa X86 --cpu O3 --mem 2GiB --cache 128KiB:1024KiB --cores 4 --workload boot_exit

info: Standard input is not a terminal, disabling listeners.
info: Using default config
test3
src/sim/simulate.cc:199: info: Entering event queue @ 0.  Starting simulation...
src/mem/ruby/system/Sequencer.cc:704: warn: Replacement policy updates recently became the responsibility of SLICC state machines. Make sure to setMRU() near callbacks in .sm files!
build/ALL/arch/x86/generated/exec-ns.cc.inc:27: warn: instruction 'fninit' unimplemented
build/ALL/arch/x86/generated/exec-ns.cc.inc:27: warn: instruction 'sgdt_Ms' unimplemented
src/cpu/o3/fetch.cc:603: warn: Address 0xffffffc0 is outside of physical memory, stopping fetch
src/cpu/o3/fetch.cc:603: warn: Address 0xffffffc0 is outside of physical memory, stopping fetch
build/ALL/arch/x86/generated/exec-ns.cc.inc:27: warn: instruction 'wbinvd' unimplemented
build/ALL/arch/x86/generated/exec-ns.cc.inc:27: warn: instruction 'sgdt_Ms' unimplemented
build/ALL/arch/x86/generated/exec-ns.cc.inc:27: warn: instruction 'fninit' unimplemented
src/arch/x86/interrupts.cc:530: hack: Assuming logical destinations are 1 << id.
src/cpu/o3/fetch.cc:603: warn: Address 0xffffffc0 is outside of physical memory, stopping fetch
src/cpu/o3/fetch.cc:603: warn: Address 0xffffffc0 is outside of physical memory, stopping fetch
build/ALL/arch/x86/generated/exec-ns.cc.inc:27: warn: instruction 'wbinvd' unimplemented
build/ALL/arch/x86/generated/exec-ns.cc.inc:27: warn: instruction 'sgdt_Ms' unimplemented
build/ALL/arch/x86/generated/exec-ns.cc.inc:27: warn: instruction 'fninit' unimplemented
src/cpu/o3/fetch.cc:603: warn: Address 0xffffffc0 is outside of physical memory, stopping fetch
src/cpu/o3/fetch.cc:603: warn: Address 0xffffffc0 is outside of physical memory, stopping fetch
build/ALL/arch/x86/generated/exec-ns.cc.inc:27: warn: instruction 'wbinvd' unimplemented
build/ALL/arch/x86/generated/exec-ns.cc.inc:27: warn: instruction 'sgdt_Ms' unimplemented
build/ALL/arch/x86/generated/exec-ns.cc.inc:27: warn: instruction 'fninit' unimplemented
build/ALL/arch/x86/generated/exec-ns.cc.inc:27: warn: instruction 'fwait' unimplemented
build/ALL/arch/x86/generated/exec-ns.cc.inc:27: warn: instruction 'fwait' unimplemented
src/dev/x86/pc.cc:117: warn: Don't know what interrupt to clear for console.
build/ALL/arch/x86/generated/exec-ns.cc.inc:27: warn: instruction 'fwait' unimplemented
build/ALL/arch/x86/generated/exec-ns.cc.inc:27: warn: instruction 'fwait' unimplemented
first exit event: kernel booted
2025-07-22-05-30-43
src/sim/simulate.cc:199: info: Entering event queue @ 790054571250.  Starting simulation...
second exit event: in after boot
2025-07-22-05-45-51
src/sim/simulate.cc:199: info: Entering event queue @ 838747113633.  Starting simulation...
third exit event: after run script
2025-07-22-05-50-36

 Performance counter stats for '/home/mcallisl/gem5/build/ALL/gem5.opt /home/mcallisl/perf_automation/gem5_config.py --isa X86 --cpu O3 --mem 2GiB --cache 128KiB:1024KiB --cores 4 --workload boot_exit':

 1,182,793,793,001      CPU_CLK_UNHALTED.REF_XCLK        #     48.0 %  tma_frontend_bound     
                                                  #      3.9 %  tma_bad_speculation    
                                                  #     31.4 %  tma_retiring           
                                                  #     16.7 %  tma_backend_bound        (62.50%)
 2,544,831,011,545      IDQ.MS_UOPS                                                             (62.50%)
68,073,473,893,908      IDQ_UOPS_NOT_DELIVERED.CORE                                             (50.00%)
   496,205,942,542      INT_MISC.RECOVERY_CYCLES_ANY                                            (50.00%)
 1,182,302,189,918      CPU_CLK_UNHALTED.ONE_THREAD_ACTIVE                                        (50.00%)
35,479,178,301,331      CPU_CLK_UNHALTED.THREAD                                                 (62.50%)
44,607,441,835,338      UOPS_RETIRED.RETIRE_SLOTS                                               (62.50%)
49,196,770,502,764      UOPS_ISSUED.ANY                                                         (62.50%)

   12013.160552104 seconds time elapsed

   11784.910322000 seconds user
       3.269254000 seconds sys


